/*--------------------------------*- C++ -*----------------------------------*\
| =========                 |                                                 |
| \\      /  F ield         | OpenFOAM: The Open Source CFD Toolbox           |
|  \\    /   O peration     | Version:  v1606+                                |
|   \\  /    A nd           | Web:      www.OpenFOAM.com                      |
|    \\/     M anipulation  |                                                 |
\*---------------------------------------------------------------------------*/
FoamFile
{
    version     2.0;
    format      ascii;
    class       dictionary;
    object      blockMeshDict;
}
// * * * * * * * * * * * * * * * * * * * * * * * * * * * * * * * * * * * * * //

scale 0.001;
//scale 5;

// Геометрия
 R 2.0;       // Радиус пробирки
 Rb 1;        // Радиус закругления дна
 L 7.0;        // Высота пробирки без учета дна
 Lh 2;        // Высота охлаждающего эемента
// Beta  10;    // Угол наклона мениска
// Alpha 30;    // Угол наклона пробирки
 M 50;        // Радиус закругления мениска

// Параметры сетки
// nM   7;       // Разбиение блоков по радиусу
// nL   50;      // Основная высота пробики
// nH   10;      // Высота в области нагрева
nM 14; nL 90; nH 22;

// Коэффициенты неравномерности сетки
 DnL   1.5;
// DnSM1 ((0.25 0.25 1) (0.75 0.75 1));

//=======================================

 a1 0.5;
 a2 1.15;

#include "mathematics.bmd"
#include "tmpVars.bmd"

#include "coordinates.bmd"
#include "blocks.bmd"
#include "edges.bmd"

//#include "boundaries.bmd"
boundary
(


    walls
    {
        type wall;
        faces
        (

        );
    }
);

mergePatchPairs (
);

//#calc "printf(\"\n\n\n\n\n====> 182 (%f,%f)\n====> 183 (%f,%f)\n====> 178 (%f,%f)\n====> 179 (%f,%f)\n====> Pc (%f,%f)\n-----> K = %f \t K^2 = %f\n-----> B = %f\n-----> h = %f\n-----> sin(omg) = %f \t cos(omg) = %f\n\n\n\n\n\",$y232,$z232,$y233,$z233,$y228,$z228,$y229,$z229,$tmpYsm,$tmpZsm,$tmpKsm,$tmpAsm,$tmpBsm,$tmpHsm,$SinAomg,$CosAomg)";

//++++++++++++++++++++++++++++++++++++++++++++++++++++++++++






